data/ENWL/enwl_phase_to_neutral_embedded/network_4/Feeder_5/Lines.txt
! Imported from Lines.txt, with modified linecodes
! ------------------------------------------------------------------------------------------
New Line.LINE0 Bus1=sourcebus.1.2.3 Bus2=1.1.2.3 phases=3 Linecode=LC5 Length=1 Units=m
New Line.LINE1 Bus1=1.1.2.3 Bus2=2.1.2.3 phases=3 Linecode=LC5 Length=0.11454 Units=m
New Line.LINE2 Bus1=2.1.2.3 Bus2=3.1.2.3 phases=3 Linecode=LC5 Length=0.13327 Units=m
New Line.LINE3 Bus1=3.1.2.3 Bus2=4.1.2.3 phases=3 Linecode=LC5 Length=0.042521 Units=m
New Line.LINE4 Bus1=4.1.2.3 Bus2=5.1.2.3 phases=3 Linecode=LC5 Length=0.05021 Units=m
New Line.LINE5 Bus1=5.1.2.3 Bus2=6.1.2.3 phases=3 Linecode=LC5 Length=0.063127 Units=m
New Line.LINE6 Bus1=6.1.2.3 Bus2=7.1.2.3 phases=3 Linecode=LC5 Length=0.058258 Units=m
New Line.LINE7 Bus1=7.1.2.3 Bus2=8.1.2.3 phases=3 Linecode=LC5 Length=0.074095 Units=m
New Line.LINE8 Bus1=8.1.2.3 Bus2=9.1.2.3 phases=3 Linecode=LC5 Length=0.055154 Units=m
New Line.LINE9 Bus1=9.1.2.3 Bus2=10.1.2.3 phases=3 Linecode=LC5 Length=0.048374 Units=m
New Line.LINE10 Bus1=10.1.2.3 Bus2=11.1.2.3 phases=3 Linecode=LC5 Length=0.069116 Units=m
New Line.LINE11 Bus1=11.1.2.3 Bus2=12.1.2.3 phases=3 Linecode=LC5 Length=0.109 Units=m
New Line.LINE12 Bus1=12.1.2.3 Bus2=13.1.2.3 phases=3 Linecode=LC5 Length=0.074813 Units=m
New Line.LINE13 Bus1=13.1.2.3 Bus2=14.1.2.3 phases=3 Linecode=LC5 Length=0.29285 Units=m
New Line.LINE14 Bus1=14.1.2.3 Bus2=15.1.2.3 phases=3 Linecode=LC5 Length=0.031953 Units=m
New Line.LINE15 Bus1=15.1.2.3 Bus2=16.1.2.3 phases=3 Linecode=LC5 Length=1.729 Units=m
New Line.LINE16 Bus1=16.1.2.3 Bus2=17.1.2.3 phases=3 Linecode=LC5 Length=0.097082 Units=m
New Line.LINE17 Bus1=17.1.2.3 Bus2=18.1.2.3 phases=3 Linecode=LC5 Length=0.069971 Units=m
New Line.LINE18 Bus1=18.1.2.3 Bus2=19.1.2.3 phases=3 Linecode=LC5 Length=0.037014 Units=m
New Line.LINE19 Bus1=19.1.2.3 Bus2=20.1.2.3 phases=3 Linecode=LC5 Length=0.42169 Units=m
New Line.LINE20 Bus1=20.1.2.3 Bus2=21.1.2.3 phases=3 Linecode=LC5 Length=0.038897 Units=m
New Line.LINE21 Bus1=21.1.2.3 Bus2=22.1.2.3 phases=3 Linecode=LC5 Length=0.057628 Units=m
New Line.LINE22 Bus1=22.1.2.3 Bus2=23.1.2.3 phases=3 Linecode=LC5 Length=0.077666 Units=m
New Line.LINE23 Bus1=23.1.2.3 Bus2=24.1.2.3 phases=3 Linecode=LC5 Length=0.076662 Units=m
New Line.LINE24 Bus1=24.1.2.3 Bus2=25.1.2.3 phases=3 Linecode=LC5 Length=0.04588 Units=m
New Line.LINE25 Bus1=25.1.2.3 Bus2=26.1.2.3 phases=3 Linecode=LC5 Length=4.0269 Units=m
New Line.LINE26 Bus1=26.1.2.3 Bus2=27.1.2.3 phases=3 Linecode=LC5 Length=1.1579 Units=m
New Line.LINE27 Bus1=27.1.2.3 Bus2=28.1.2.3 phases=3 Linecode=LC5 Length=0.07 Units=m
New Line.LINE28 Bus1=28.1.2.3 Bus2=29.1.2.3 phases=3 Linecode=LC5 Length=0.10316 Units=m
New Line.LINE29 Bus1=29.1.2.3 Bus2=30.1.2.3 phases=3 Linecode=LC5 Length=0.11618 Units=m
New Line.LINE30 Bus1=30.1.2.3 Bus2=31.1.2.3 phases=3 Linecode=LC5 Length=0.109 Units=m
New Line.LINE31 Bus1=31.1.2.3 Bus2=32.1.2.3 phases=3 Linecode=LC5 Length=0.098412 Units=m
New Line.LINE32 Bus1=32.1.2.3 Bus2=33.1.2.3 phases=3 Linecode=LC5 Length=0.087235 Units=m
New Line.LINE33 Bus1=33.1.2.3 Bus2=34.1.2.3 phases=3 Linecode=LC5 Length=0.084504 Units=m
New Line.LINE34 Bus1=34.1.2.3 Bus2=35.1.2.3 phases=3 Linecode=LC5 Length=0.074277 Units=m
New Line.LINE35 Bus1=35.1.2.3 Bus2=36.1.2.3 phases=3 Linecode=LC5 Length=0.06631 Units=m
New Line.LINE36 Bus1=36.1.2.3 Bus2=37.1.2.3 phases=3 Linecode=LC5 Length=0.35768 Units=m
New Line.LINE37 Bus1=37.1.2.3 Bus2=38.1.2.3 phases=3 Linecode=LC5 Length=3.1175 Units=m
New Line.LINE38 Bus1=38.1.2.3 Bus2=39.1.2.3 phases=3 Linecode=LC5 Length=6.1122 Units=m
New Line.LINE39 Bus1=39.1.2.3 Bus2=40.1.2.3 phases=3 Linecode=LC5 Length=5.1075 Units=m
New Line.LINE40 Bus1=40.1.2.3 Bus2=41.1.2.3 phases=3 Linecode=LC5 Length=3.874 Units=m
New Line.LINE41 Bus1=41.1.2.3 Bus2=42.1.2.3 phases=3 Linecode=LC5 Length=3.3388 Units=m
New Line.LINE42 Bus1=42.1.2.3 Bus2=43.1.2.3 phases=3 Linecode=LC5 Length=4.3019 Units=m
New Line.LINE43 Bus1=43.1.2.3 Bus2=44.1.2.3 phases=3 Linecode=LC5 Length=2.1433 Units=m
New Line.LINE44 Bus1=44.1.2.3 Bus2=45.1.2.3 phases=3 Linecode=LC5 Length=0.38011 Units=m
New Line.LINE45 Bus1=45.1.2.3 Bus2=46.1.2.3 phases=3 Linecode=LC5 Length=0.40205 Units=m
New Line.LINE46 Bus1=46.1.2.3 Bus2=47.1.2.3 phases=3 Linecode=LC5 Length=0.59012 Units=m
New Line.LINE47 Bus1=47.1.2.3 Bus2=48.1.2.3 phases=3 Linecode=LC5 Length=0.7441 Units=m
New Line.LINE48 Bus1=48.1.2.3 Bus2=49.1.2.3 phases=3 Linecode=LC5 Length=1.1163 Units=m
New Line.LINE49 Bus1=49.1.2.3 Bus2=50.1.2.3 phases=3 Linecode=LC5 Length=0.4383 Units=m
New Line.LINE50 Bus1=50.1.2.3 Bus2=51.1.2.3 phases=3 Linecode=LC5 Length=0.20248 Units=m
New Line.LINE51 Bus1=51.1.2.3 Bus2=52.1.2.3 phases=3 Linecode=LC5 Length=3.0249 Units=m
New Line.LINE52 Bus1=52.1.2.3 Bus2=53.1.2.3 phases=3 Linecode=LC5 Length=0.36228 Units=m
New Line.LINE53 Bus1=53.1.2.3 Bus2=54.1.2.3 phases=3 Linecode=LC5 Length=0.097252 Units=m
New Line.LINE54 Bus1=54.1.2.3 Bus2=55.1.2.3 phases=3 Linecode=LC5 Length=0.068066 Units=m
New Line.LINE55 Bus1=55.1.2.3 Bus2=56.1.2.3 phases=3 Linecode=LC5 Length=0.14876 Units=m
New Line.LINE56 Bus1=56.1.2.3 Bus2=57.1.2.3 phases=3 Linecode=LC5 Length=0.10422 Units=m
New Line.LINE57 Bus1=57.1.2.3 Bus2=58.1.2.3 phases=3 Linecode=LC5 Length=0.1005 Units=m
New Line.LINE58 Bus1=58.1.2.3 Bus2=59.1.2.3 phases=3 Linecode=LC5 Length=0.10683 Units=m
New Line.LINE59 Bus1=59.1.2.3 Bus2=60.1.2.3 phases=3 Linecode=LC5 Length=0.4137 Units=m
New Line.LINE60 Bus1=60.1.2.3 Bus2=61.1.2.3 phases=3 Linecode=LC5 Length=0.14649 Units=m
New Line.LINE61 Bus1=61.1.2.3 Bus2=62.1.2.3 phases=3 Linecode=LC5 Length=0.078721 Units=m
New Line.LINE62 Bus1=62.1.2.3 Bus2=63.1.2.3 phases=3 Linecode=LC5 Length=0.072732 Units=m
New Line.LINE63 Bus1=63.1.2.3 Bus2=64.1.2.3 phases=3 Linecode=LC5 Length=0.079699 Units=m
New Line.LINE64 Bus1=64.1.2.3 Bus2=65.1.2.3 phases=3 Linecode=LC5 Length=1.1518 Units=m
New Line.LINE65 Bus1=65.1.2.3 Bus2=66.1.2.3 phases=3 Linecode=LC4 Length=8.9065 Units=m
New Line.LINE66 Bus1=66.1.2.3 Bus2=67.1.2.3 phases=3 Linecode=LC6 Length=7.1715 Units=m
New Line.LINE67 Bus1=66.1.2.3 Bus2=68.1.2.3 phases=3 Linecode=LC4 Length=1.8962 Units=m
New Line.LINE68 Bus1=67.1.2.3 Bus2=69.1.2.3 phases=3 Linecode=LC6 Length=5.1973 Units=m
New Line.LINE69 Bus1=68.1.2.3 Bus2=70.1.2.3 phases=3 Linecode=LC1 Length=22.7408 Units=m
New Line.LINE70 Bus1=68.1.2.3 Bus2=71.1.2.3 phases=3 Linecode=LC4 Length=2.3074 Units=m
New Line.LINE71 Bus1=69.1.2.3 Bus2=72.1.2.3 phases=3 Linecode=LC6 Length=3.3059 Units=m
New Line.LINE72 Bus1=70.1.2.3 Bus2=73.1.2.3 phases=3 Linecode=LC1 Length=0.12516 Units=m
New Line.LINE73 Bus1=71.1.2.3 Bus2=74.1.2.3 phases=3 Linecode=LC1 Length=8.2256 Units=m
New Line.LINE74 Bus1=71.1.2.3 Bus2=75.1.2.3 phases=3 Linecode=LC4 Length=4.1317 Units=m
New Line.LINE75 Bus1=72.1.2.3 Bus2=76.1.2.3 phases=3 Linecode=LC6 Length=0.82338 Units=m
New Line.LINE76 Bus1=73.1.2.3 Bus2=77.1.2.3 phases=3 Linecode=LC1 Length=0.222 Units=m
New Line.LINE77 Bus1=74.1.2.3 Bus2=78.1.2.3 phases=3 Linecode=LC1 Length=0.20107 Units=m
New Line.LINE78 Bus1=75.1.2.3 Bus2=79.1.2.3 phases=3 Linecode=LC6 Length=0.26899 Units=m
New Line.LINE79 Bus1=75.1.2.3 Bus2=80.1.2.3 phases=3 Linecode=LC4 Length=11.033 Units=m
New Line.LINE80 Bus1=76.1.2.3 Bus2=81.1.2.3 phases=3 Linecode=LC6 Length=2.8631 Units=m
New Line.LINE81 Bus1=77.1.2.3 Bus2=82.1.2.3 phases=3 Linecode=LC1 Length=0.16825 Units=m
New Line.LINE82 Bus1=78.1.2.3 Bus2=83.1.2.3 phases=3 Linecode=LC1 Length=0.13424 Units=m
New Line.LINE83 Bus1=79.1.2.3 Bus2=84.1.2.3 phases=3 Linecode=LC6 Length=0.23063 Units=m
New Line.LINE84 Bus1=80.1.2.3 Bus2=85.1.2.3 phases=3 Linecode=LC4 Length=3.3534 Units=m
New Line.LINE85 Bus1=81.1.2.3 Bus2=86.1.2.3 phases=3 Linecode=LC6 Length=5.7804 Units=m
New Line.LINE86 Bus1=82.1.2.3 Bus2=87.1.2.3 phases=3 Linecode=LC1 Length=0.20032 Units=m
New Line.LINE87 Bus1=83.1.2.3 Bus2=88.1.2.3 phases=3 Linecode=LC1 Length=3.9013 Units=m
New Line.LINE88 Bus1=84.1.2.3 Bus2=89.1.2.3 phases=3 Linecode=LC6 Length=16.1736 Units=m
New Line.LINE89 Bus1=85.1.2.3 Bus2=90.1.2.3 phases=3 Linecode=LC1 Length=6.8733 Units=m
New Line.LINE90 Bus1=85.1.2.3 Bus2=91.1.2.3 phases=3 Linecode=LC4 Length=4.4727 Units=m
New Line.LINE91 Bus1=86.1.2.3 Bus2=92.1.2.3 phases=3 Linecode=LC6 Length=4.6654 Units=m
New Line.LINE92 Bus1=87.1.2.3 Bus2=93.1.2.3 phases=3 Linecode=LC1 Length=0.187 Units=m
New Line.LINE93 Bus1=88.1.2.3 Bus2=94.1.2.3 phases=3 Linecode=LC1 Length=5.9242 Units=m
New Line.LINE94 Bus1=90.1.2.3 Bus2=95.1.2.3 phases=3 Linecode=LC1 Length=0.28037 Units=m
New Line.LINE95 Bus1=91.1.2.3 Bus2=96.1.2.3 phases=3 Linecode=LC1 Length=8.8382 Units=m
New Line.LINE96 Bus1=91.1.2.3 Bus2=97.1.2.3 phases=3 Linecode=LC4 Length=1.3993 Units=m
New Line.LINE97 Bus1=92.1.2.3 Bus2=98.1.2.3 phases=3 Linecode=LC6 Length=1.7339 Units=m
New Line.LINE98 Bus1=93.1.2.3 Bus2=99.1.2.3 phases=3 Linecode=LC1 Length=0.47989 Units=m
New Line.LINE99 Bus1=95.1.2.3 Bus2=100.1.2.3 phases=3 Linecode=LC1 Length=0.29628 Units=m
New Line.LINE100 Bus1=96.1.2.3 Bus2=101.1.2.3 phases=3 Linecode=LC1 Length=0.30842 Units=m
New Line.LINE101 Bus1=97.1.2.3 Bus2=102.1.2.3 phases=3 Linecode=LC4 Length=7.9951 Units=m
New Line.LINE102 Bus1=98.1.2.3 Bus2=103.1.2.3 phases=3 Linecode=LC6 Length=1.9621 Units=m
New Line.LINE103 Bus1=99.1.2.3 Bus2=104.1.2.3 phases=3 Linecode=LC1 Length=0.61735 Units=m
New Line.LINE104 Bus1=100.1.2.3 Bus2=105.1.2.3 phases=3 Linecode=LC1 Length=0.27657 Units=m
New Line.LINE105 Bus1=101.1.2.3 Bus2=106.1.2.3 phases=3 Linecode=LC1 Length=0.40607 Units=m
New Line.LINE106 Bus1=102.1.2.3 Bus2=107.1.2.3 phases=3 Linecode=LC4 Length=0.23275 Units=m
New Line.LINE107 Bus1=102.1.2.3 Bus2=108.1.2.3 phases=3 Linecode=LC4 Length=2.4845 Units=m
New Line.LINE108 Bus1=103.1.2.3 Bus2=109.1.2.3 phases=3 Linecode=LC6 Length=1.5867 Units=m
New Line.LINE109 Bus1=104.1.2.3 Bus2=110.1.2.3 phases=3 Linecode=LC1 Length=0.97238 Units=m
New Line.LINE110 Bus1=105.1.2.3 Bus2=111.1.2.3 phases=3 Linecode=LC1 Length=1.2698 Units=m
New Line.LINE111 Bus1=106.1.2.3 Bus2=112.1.2.3 phases=3 Linecode=LC1 Length=0.40865 Units=m
New Line.LINE112 Bus1=107.1.2.3 Bus2=113.1.2.3 phases=3 Linecode=LC4 Length=0.13105 Units=m
New Line.LINE113 Bus1=108.1.2.3 Bus2=114.1.2.3 phases=3 Linecode=LC4 Length=6.1745 Units=m
New Line.LINE114 Bus1=109.1.2.3 Bus2=115.1.2.3 phases=3 Linecode=LC1 Length=6.2419 Units=m
New Line.LINE115 Bus1=109.1.2.3 Bus2=116.1.2.3 phases=3 Linecode=LC6 Length=1.3312 Units=m
New Line.LINE116 Bus1=110.1.2.3 Bus2=117.1.2.3 phases=3 Linecode=LC1 Length=0.45958 Units=m
New Line.LINE117 Bus1=111.1.2.3 Bus2=118.1.2.3 phases=3 Linecode=LC1 Length=5.8166 Units=m
New Line.LINE118 Bus1=112.1.2.3 Bus2=119.1.2.3 phases=3 Linecode=LC1 Length=0.97924 Units=m
New Line.LINE119 Bus1=113.1.2.3 Bus2=120.1.2.3 phases=3 Linecode=LC4 Length=0.15536 Units=m
New Line.LINE120 Bus1=114.1.2.3 Bus2=121.1.2.3 phases=3 Linecode=LC1 Length=8.9807 Units=m
New Line.LINE121 Bus1=114.1.2.3 Bus2=122.1.2.3 phases=3 Linecode=LC4 Length=1.2876 Units=m
New Line.LINE122 Bus1=115.1.2.3 Bus2=123.1.2.3 phases=3 Linecode=LC1 Length=0.41106 Units=m
New Line.LINE123 Bus1=117.1.2.3 Bus2=124.1.2.3 phases=3 Linecode=LC1 Length=4.2748 Units=m
New Line.LINE124 Bus1=119.1.2.3 Bus2=125.1.2.3 phases=3 Linecode=LC1 Length=4.4845 Units=m
New Line.LINE125 Bus1=120.1.2.3 Bus2=126.1.2.3 phases=3 Linecode=LC4 Length=0.91248 Units=m
New Line.LINE126 Bus1=121.1.2.3 Bus2=127.1.2.3 phases=3 Linecode=LC1 Length=0.23161 Units=m
New Line.LINE127 Bus1=122.1.2.3 Bus2=128.1.2.3 phases=3 Linecode=LC6 Length=0.306 Units=m
New Line.LINE128 Bus1=122.1.2.3 Bus2=129.1.2.3 phases=3 Linecode=LC4 Length=2.0297 Units=m
New Line.LINE129 Bus1=123.1.2.3 Bus2=130.1.2.3 phases=3 Linecode=LC1 Length=0.24361 Units=m
New Line.LINE130 Bus1=124.1.2.3 Bus2=131.1.2.3 phases=3 Linecode=LC1 Length=0.12366 Units=m
New Line.LINE131 Bus1=126.1.2.3 Bus2=132.1.2.3 phases=3 Linecode=LC4 Length=0.096385 Units=m
New Line.LINE132 Bus1=127.1.2.3 Bus2=133.1.2.3 phases=3 Linecode=LC1 Length=0.27272 Units=m
New Line.LINE133 Bus1=128.1.2.3 Bus2=134.1.2.3 phases=3 Linecode=LC6 Length=0.082492 Units=m
New Line.LINE134 Bus1=129.1.2.3 Bus2=135.1.2.3 phases=3 Linecode=LC1 Length=9.0403 Units=m
New Line.LINE135 Bus1=129.1.2.3 Bus2=136.1.2.3 phases=3 Linecode=LC4 Length=0.6483 Units=m
New Line.LINE136 Bus1=130.1.2.3 Bus2=137.1.2.3 phases=3 Linecode=LC1 Length=0.23505 Units=m
New Line.LINE137 Bus1=131.1.2.3 Bus2=138.1.2.3 phases=3 Linecode=LC1 Length=0.16384 Units=m
New Line.LINE138 Bus1=132.1.2.3 Bus2=139.1.2.3 phases=3 Linecode=LC4 Length=0.089202 Units=m
New Line.LINE139 Bus1=133.1.2.3 Bus2=140.1.2.3 phases=3 Linecode=LC1 Length=0.93684 Units=m
New Line.LINE140 Bus1=134.1.2.3 Bus2=141.1.2.3 phases=3 Linecode=LC6 Length=0.105 Units=m
New Line.LINE141 Bus1=135.1.2.3 Bus2=142.1.2.3 phases=3 Linecode=LC1 Length=0.26377 Units=m
New Line.LINE142 Bus1=136.1.2.3 Bus2=143.1.2.3 phases=3 Linecode=LC4 Length=9.7828 Units=m
New Line.LINE143 Bus1=137.1.2.3 Bus2=144.1.2.3 phases=3 Linecode=LC1 Length=0.16683 Units=m
New Line.LINE144 Bus1=138.1.2.3 Bus2=145.1.2.3 phases=3 Linecode=LC1 Length=0.1643 Units=m
New Line.LINE145 Bus1=139.1.2.3 Bus2=146.1.2.3 phases=3 Linecode=LC4 Length=0.063953 Units=m
New Line.LINE146 Bus1=140.1.2.3 Bus2=147.1.2.3 phases=3 Linecode=LC1 Length=5.671 Units=m
New Line.LINE147 Bus1=141.1.2.3 Bus2=148.1.2.3 phases=3 Linecode=LC6 Length=0.090907 Units=m
New Line.LINE148 Bus1=142.1.2.3 Bus2=149.1.2.3 phases=3 Linecode=LC1 Length=0.23697 Units=m
New Line.LINE149 Bus1=143.1.2.3 Bus2=150.1.2.3 phases=3 Linecode=LC4 Length=0.7218 Units=m
New Line.LINE150 Bus1=143.1.2.3 Bus2=151.1.2.3 phases=3 Linecode=LC4 Length=0.27047 Units=m
New Line.LINE151 Bus1=144.1.2.3 Bus2=152.1.2.3 phases=3 Linecode=LC1 Length=0.2148 Units=m
New Line.LINE152 Bus1=145.1.2.3 Bus2=153.1.2.3 phases=3 Linecode=LC1 Length=0.15617 Units=m
New Line.LINE153 Bus1=146.1.2.3 Bus2=154.1.2.3 phases=3 Linecode=LC4 Length=9.7225 Units=m
New Line.LINE154 Bus1=148.1.2.3 Bus2=155.1.2.3 phases=3 Linecode=LC6 Length=0.064661 Units=m
New Line.LINE155 Bus1=149.1.2.3 Bus2=156.1.2.3 phases=3 Linecode=LC1 Length=0.65954 Units=m
New Line.LINE156 Bus1=151.1.2.3 Bus2=157.1.2.3 phases=3 Linecode=LC4 Length=0.094831 Units=m
New Line.LINE157 Bus1=152.1.2.3 Bus2=158.1.2.3 phases=3 Linecode=LC1 Length=0.21322 Units=m
New Line.LINE158 Bus1=153.1.2.3 Bus2=159.1.2.3 phases=3 Linecode=LC1 Length=0.11163 Units=m
New Line.LINE159 Bus1=154.1.2.3 Bus2=160.1.2.3 phases=3 Linecode=LC4 Length=0.0764 Units=m
New Line.LINE160 Bus1=155.1.2.3 Bus2=161.1.2.3 phases=3 Linecode=LC6 Length=0.083863 Units=m
New Line.LINE161 Bus1=156.1.2.3 Bus2=162.1.2.3 phases=3 Linecode=LC1 Length=8.5494 Units=m
New Line.LINE162 Bus1=157.1.2.3 Bus2=163.1.2.3 phases=3 Linecode=LC4 Length=0.11125 Units=m
New Line.LINE163 Bus1=158.1.2.3 Bus2=164.1.2.3 phases=3 Linecode=LC1 Length=0.1294 Units=m
New Line.LINE164 Bus1=159.1.2.3 Bus2=165.1.2.3 phases=3 Linecode=LC1 Length=0.10723 Units=m
New Line.LINE165 Bus1=160.1.2.3 Bus2=166.1.2.3 phases=3 Linecode=LC4 Length=0.053535 Units=m
New Line.LINE166 Bus1=161.1.2.3 Bus2=167.1.2.3 phases=3 Linecode=LC6 Length=0.074793 Units=m
New Line.LINE167 Bus1=163.1.2.3 Bus2=168.1.2.3 phases=3 Linecode=LC4 Length=0.36989 Units=m
New Line.LINE168 Bus1=164.1.2.3 Bus2=169.1.2.3 phases=3 Linecode=LC1 Length=0.1384 Units=m
New Line.LINE169 Bus1=165.1.2.3 Bus2=170.1.2.3 phases=3 Linecode=LC1 Length=0.59957 Units=m
New Line.LINE170 Bus1=166.1.2.3 Bus2=171.1.2.3 phases=3 Linecode=LC4 Length=0.059615 Units=m
New Line.LINE171 Bus1=167.1.2.3 Bus2=172.1.2.3 phases=3 Linecode=LC6 Length=0.063561 Units=m
New Line.LINE172 Bus1=168.1.2.3 Bus2=173.1.2.3 phases=3 Linecode=LC4 Length=2.5687 Units=m
New Line.LINE173 Bus1=169.1.2.3 Bus2=174.1.2.3 phases=3 Linecode=LC1 Length=0.61677 Units=m
New Line.LINE174 Bus1=170.1.2.3 Bus2=175.1.2.3 phases=3 Linecode=LC1 Length=4.8898 Units=m
New Line.LINE175 Bus1=171.1.2.3 Bus2=176.1.2.3 phases=3 Linecode=LC4 Length=0.12417 Units=m
New Line.LINE176 Bus1=172.1.2.3 Bus2=177.1.2.3 phases=3 Linecode=LC6 Length=0.082098 Units=m
New Line.LINE177 Bus1=173.1.2.3 Bus2=178.1.2.3 phases=3 Linecode=LC1 Length=8.7703 Units=m
New Line.LINE178 Bus1=173.1.2.3 Bus2=179.1.2.3 phases=3 Linecode=LC4 Length=2.5687 Units=m
New Line.LINE179 Bus1=174.1.2.3 Bus2=180.1.2.3 phases=3 Linecode=LC1 Length=8.3038 Units=m
New Line.LINE180 Bus1=176.1.2.3 Bus2=181.1.2.3 phases=3 Linecode=LC4 Length=18.3583 Units=m
New Line.LINE181 Bus1=177.1.2.3 Bus2=182.1.2.3 phases=3 Linecode=LC6 Length=0.10817 Units=m
New Line.LINE182 Bus1=178.1.2.3 Bus2=183.1.2.3 phases=3 Linecode=LC1 Length=3.3791 Units=m
New Line.LINE183 Bus1=179.1.2.3 Bus2=184.1.2.3 phases=3 Linecode=LC4 Length=7.0396 Units=m
New Line.LINE184 Bus1=180.1.2.3 Bus2=185.1.2.3 phases=3 Linecode=LC1 Length=0.40498 Units=m
New Line.LINE185 Bus1=181.1.2.3 Bus2=186.1.2.3 phases=3 Linecode=LC4 Length=0.11908 Units=m
New Line.LINE186 Bus1=182.1.2.3 Bus2=187.1.2.3 phases=3 Linecode=LC6 Length=0.11868 Units=m
New Line.LINE187 Bus1=184.1.2.3 Bus2=188.1.2.3 phases=3 Linecode=LC4 Length=0.076222 Units=m
New Line.LINE188 Bus1=184.1.2.3 Bus2=189.1.2.3 phases=3 Linecode=LC4 Length=3.3712 Units=m
New Line.LINE189 Bus1=185.1.2.3 Bus2=190.1.2.3 phases=3 Linecode=LC1 Length=0.1072 Units=m
New Line.LINE190 Bus1=186.1.2.3 Bus2=191.1.2.3 phases=3 Linecode=LC4 Length=0.12615 Units=m
New Line.LINE191 Bus1=187.1.2.3 Bus2=192.1.2.3 phases=3 Linecode=LC6 Length=0.10599 Units=m
New Line.LINE192 Bus1=188.1.2.3 Bus2=193.1.2.3 phases=3 Linecode=LC4 Length=0.082638 Units=m
New Line.LINE193 Bus1=189.1.2.3 Bus2=194.1.2.3 phases=3 Linecode=LC1 Length=0.33283 Units=m
New Line.LINE194 Bus1=189.1.2.3 Bus2=195.1.2.3 phases=3 Linecode=LC4 Length=15.4078 Units=m
New Line.LINE195 Bus1=190.1.2.3 Bus2=196.1.2.3 phases=3 Linecode=LC1 Length=0.11189 Units=m
New Line.LINE196 Bus1=191.1.2.3 Bus2=197.1.2.3 phases=3 Linecode=LC4 Length=0.12108 Units=m
New Line.LINE197 Bus1=192.1.2.3 Bus2=198.1.2.3 phases=3 Linecode=LC6 Length=0.05728 Units=m
New Line.LINE198 Bus1=193.1.2.3 Bus2=199.1.2.3 phases=3 Linecode=LC4 Length=0.08268 Units=m
New Line.LINE199 Bus1=194.1.2.3 Bus2=200.1.2.3 phases=3 Linecode=LC1 Length=0.24021 Units=m
New Line.LINE200 Bus1=195.1.2.3 Bus2=201.1.2.3 phases=3 Linecode=LC4 Length=0.61517 Units=m
New Line.LINE201 Bus1=195.1.2.3 Bus2=202.1.2.3 phases=3 Linecode=LC4 Length=1.2245 Units=m
New Line.LINE202 Bus1=196.1.2.3 Bus2=203.1.2.3 phases=3 Linecode=LC1 Length=0.14566 Units=m
New Line.LINE203 Bus1=197.1.2.3 Bus2=204.1.2.3 phases=3 Linecode=LC4 Length=0.40634 Units=m
New Line.LINE204 Bus1=198.1.2.3 Bus2=205.1.2.3 phases=3 Linecode=LC6 Length=0.22881 Units=m
New Line.LINE205 Bus1=199.1.2.3 Bus2=206.1.2.3 phases=3 Linecode=LC4 Length=0.082807 Units=m
New Line.LINE206 Bus1=200.1.2.3 Bus2=207.1.2.3 phases=3 Linecode=LC1 Length=0.26298 Units=m
New Line.LINE207 Bus1=202.1.2.3 Bus2=208.1.2.3 phases=3 Linecode=LC2 Length=0.40377 Units=m
New Line.LINE208 Bus1=202.1.2.3 Bus2=209.1.2.3 phases=3 Linecode=LC4 Length=4.5443 Units=m
New Line.LINE209 Bus1=203.1.2.3 Bus2=210.1.2.3 phases=3 Linecode=LC1 Length=0.1722 Units=m
New Line.LINE210 Bus1=204.1.2.3 Bus2=211.1.2.3 phases=3 Linecode=LC4 Length=0.63081 Units=m
New Line.LINE211 Bus1=205.1.2.3 Bus2=212.1.2.3 phases=3 Linecode=LC6 Length=0.089202 Units=m
New Line.LINE212 Bus1=206.1.2.3 Bus2=213.1.2.3 phases=3 Linecode=LC4 Length=0.083006 Units=m
New Line.LINE213 Bus1=207.1.2.3 Bus2=214.1.2.3 phases=3 Linecode=LC1 Length=0.22637 Units=m
New Line.LINE214 Bus1=208.1.2.3 Bus2=215.1.2.3 phases=3 Linecode=LC2 Length=0.16592 Units=m
New Line.LINE215 Bus1=209.1.2.3 Bus2=216.1.2.3 phases=3 Linecode=LC4 Length=9.6687 Units=m
New Line.LINE216 Bus1=210.1.2.3 Bus2=217.1.2.3 phases=3 Linecode=LC1 Length=0.65557 Units=m
New Line.LINE217 Bus1=212.1.2.3 Bus2=218.1.2.3 phases=3 Linecode=LC6 Length=0.11729 Units=m
New Line.LINE218 Bus1=213.1.2.3 Bus2=219.1.2.3 phases=3 Linecode=LC4 Length=0.083193 Units=m
New Line.LINE219 Bus1=214.1.2.3 Bus2=220.1.2.3 phases=3 Linecode=LC1 Length=8.7882 Units=m
New Line.LINE220 Bus1=215.1.2.3 Bus2=221.1.2.3 phases=3 Linecode=LC2 Length=0.13091 Units=m
New Line.LINE221 Bus1=216.1.2.3 Bus2=222.1.2.3 phases=3 Linecode=LC1 Length=4.6963 Units=m
New Line.LINE222 Bus1=216.1.2.3 Bus2=223.1.2.3 phases=3 Linecode=LC4 Length=4.5555 Units=m
New Line.LINE223 Bus1=217.1.2.3 Bus2=224.1.2.3 phases=3 Linecode=LC1 Length=0.79219 Units=m
New Line.LINE224 Bus1=218.1.2.3 Bus2=225.1.2.3 phases=3 Linecode=LC6 Length=0.09443 Units=m
New Line.LINE225 Bus1=219.1.2.3 Bus2=226.1.2.3 phases=3 Linecode=LC4 Length=0.08271 Units=m
New Line.LINE226 Bus1=220.1.2.3 Bus2=227.1.2.3 phases=3 Linecode=LC1 Length=0.49769 Units=m
New Line.LINE227 Bus1=221.1.2.3 Bus2=228.1.2.3 phases=3 Linecode=LC2 Length=0.15121 Units=m
New Line.LINE228 Bus1=222.1.2.3 Bus2=229.1.2.3 phases=3 Linecode=LC1 Length=0.15754 Units=m
New Line.LINE229 Bus1=223.1.2.3 Bus2=230.1.2.3 phases=3 Linecode=LC6 Length=0.16306 Units=m
New Line.LINE230 Bus1=223.1.2.3 Bus2=231.1.2.3 phases=3 Linecode=LC4 Length=5.1123 Units=m
New Line.LINE231 Bus1=224.1.2.3 Bus2=232.1.2.3 phases=3 Linecode=LC1 Length=0.56882 Units=m
New Line.LINE232 Bus1=225.1.2.3 Bus2=233.1.2.3 phases=3 Linecode=LC6 Length=0.14123 Units=m
New Line.LINE233 Bus1=226.1.2.3 Bus2=234.1.2.3 phases=3 Linecode=LC4 Length=0.08315 Units=m
New Line.LINE234 Bus1=227.1.2.3 Bus2=235.1.2.3 phases=3 Linecode=LC1 Length=0.29397 Units=m
New Line.LINE235 Bus1=228.1.2.3 Bus2=236.1.2.3 phases=3 Linecode=LC2 Length=2.3445 Units=m
New Line.LINE236 Bus1=229.1.2.3 Bus2=237.1.2.3 phases=3 Linecode=LC1 Length=0.15732 Units=m
New Line.LINE237 Bus1=230.1.2.3 Bus2=238.1.2.3 phases=3 Linecode=LC6 Length=0.095525 Units=m
New Line.LINE238 Bus1=231.1.2.3 Bus2=239.1.2.3 phases=3 Linecode=LC4 Length=11.874 Units=m
New Line.LINE239 Bus1=232.1.2.3 Bus2=240.1.2.3 phases=3 Linecode=LC1 Length=5.3147 Units=m
New Line.LINE240 Bus1=233.1.2.3 Bus2=241.1.2.3 phases=3 Linecode=LC6 Length=0.69074 Units=m
New Line.LINE241 Bus1=234.1.2.3 Bus2=242.1.2.3 phases=3 Linecode=LC4 Length=7.2756 Units=m
New Line.LINE242 Bus1=235.1.2.3 Bus2=243.1.2.3 phases=3 Linecode=LC1 Length=0.24051 Units=m
New Line.LINE243 Bus1=236.1.2.3 Bus2=244.1.2.3 phases=3 Linecode=LC2 Length=1.34 Units=m
New Line.LINE244 Bus1=237.1.2.3 Bus2=245.1.2.3 phases=3 Linecode=LC1 Length=0.10112 Units=m
New Line.LINE245 Bus1=238.1.2.3 Bus2=246.1.2.3 phases=3 Linecode=LC6 Length=0.27102 Units=m
New Line.LINE246 Bus1=239.1.2.3 Bus2=247.1.2.3 phases=3 Linecode=LC4 Length=0.21122 Units=m
New Line.LINE247 Bus1=241.1.2.3 Bus2=248.1.2.3 phases=3 Linecode=LC1 Length=5.2023 Units=m
New Line.LINE248 Bus1=242.1.2.3 Bus2=249.1.2.3 phases=3 Linecode=LC4 Length=0.36848 Units=m
New Line.LINE249 Bus1=243.1.2.3 Bus2=250.1.2.3 phases=3 Linecode=LC1 Length=0.64738 Units=m
New Line.LINE250 Bus1=244.1.2.3 Bus2=251.1.2.3 phases=3 Linecode=LC2 Length=1.7446 Units=m
New Line.LINE251 Bus1=245.1.2.3 Bus2=252.1.2.3 phases=3 Linecode=LC1 Length=0.12146 Units=m
New Line.LINE252 Bus1=246.1.2.3 Bus2=253.1.2.3 phases=3 Linecode=LC6 Length=0.10308 Units=m
New Line.LINE253 Bus1=247.1.2.3 Bus2=254.1.2.3 phases=3 Linecode=LC4 Length=0.18832 Units=m
New Line.LINE254 Bus1=250.1.2.3 Bus2=255.1.2.3 phases=3 Linecode=LC1 Length=4.912 Units=m
New Line.LINE255 Bus1=251.1.2.3 Bus2=256.1.2.3 phases=3 Linecode=LC2 Length=0.95826 Units=m
New Line.LINE256 Bus1=252.1.2.3 Bus2=257.1.2.3 phases=3 Linecode=LC1 Length=0.096747 Units=m
New Line.LINE257 Bus1=253.1.2.3 Bus2=258.1.2.3 phases=3 Linecode=LC6 Length=0.15164 Units=m
New Line.LINE258 Bus1=254.1.2.3 Bus2=259.1.2.3 phases=3 Linecode=LC4 Length=0.17331 Units=m
New Line.LINE259 Bus1=256.1.2.3 Bus2=260.1.2.3 phases=3 Linecode=LC2 Length=1.3998 Units=m
New Line.LINE260 Bus1=257.1.2.3 Bus2=261.1.2.3 phases=3 Linecode=LC1 Length=0.10341 Units=m
New Line.LINE261 Bus1=258.1.2.3 Bus2=262.1.2.3 phases=3 Linecode=LC6 Length=0.3216 Units=m
New Line.LINE262 Bus1=259.1.2.3 Bus2=263.1.2.3 phases=3 Linecode=LC4 Length=0.27733 Units=m
New Line.LINE263 Bus1=260.1.2.3 Bus2=264.1.2.3 phases=3 Linecode=LC2 Length=0.44449 Units=m
New Line.LINE264 Bus1=261.1.2.3 Bus2=265.1.2.3 phases=3 Linecode=LC1 Length=0.58372 Units=m
New Line.LINE265 Bus1=263.1.2.3 Bus2=266.1.2.3 phases=3 Linecode=LC4 Length=0.18162 Units=m
New Line.LINE266 Bus1=264.1.2.3 Bus2=267.1.2.3 phases=3 Linecode=LC2 Length=3.8212 Units=m
New Line.LINE267 Bus1=265.1.2.3 Bus2=268.1.2.3 phases=3 Linecode=LC1 Length=3.1748 Units=m
New Line.LINE268 Bus1=266.1.2.3 Bus2=269.1.2.3 phases=3 Linecode=LC4 Length=0.28423 Units=m
New Line.LINE269 Bus1=267.1.2.3 Bus2=270.1.2.3 phases=3 Linecode=LC2 Length=0.36968 Units=m
New Line.LINE270 Bus1=268.1.2.3 Bus2=271.1.2.3 phases=3 Linecode=LC1 Length=5.5978 Units=m
New Line.LINE271 Bus1=269.1.2.3 Bus2=272.1.2.3 phases=3 Linecode=LC4 Length=0.28563 Units=m
New Line.LINE272 Bus1=270.1.2.3 Bus2=273.1.2.3 phases=3 Linecode=LC2 Length=0.38488 Units=m
New Line.LINE273 Bus1=272.1.2.3 Bus2=274.1.2.3 phases=3 Linecode=LC4 Length=0.40412 Units=m
New Line.LINE274 Bus1=273.1.2.3 Bus2=275.1.2.3 phases=3 Linecode=LC2 Length=0.68193 Units=m
New Line.LINE275 Bus1=274.1.2.3 Bus2=276.1.2.3 phases=3 Linecode=LC4 Length=1.4061 Units=m
New Line.LINE276 Bus1=274.1.2.3 Bus2=277.1.2.3 phases=3 Linecode=LC4 Length=0.9966 Units=m
New Line.LINE277 Bus1=275.1.2.3 Bus2=278.1.2.3 phases=3 Linecode=LC2 Length=3.5263 Units=m
New Line.LINE278 Bus1=276.1.2.3 Bus2=279.1.2.3 phases=3 Linecode=LC4 Length=0.57817 Units=m
New Line.LINE279 Bus1=276.1.2.3 Bus2=280.1.2.3 phases=3 Linecode=LC4 Length=0.74244 Units=m
New Line.LINE280 Bus1=277.1.2.3 Bus2=281.1.2.3 phases=3 Linecode=LC4 Length=0.28735 Units=m
New Line.LINE281 Bus1=279.1.2.3 Bus2=282.1.2.3 phases=3 Linecode=LC4 Length=0.45293 Units=m
New Line.LINE282 Bus1=280.1.2.3 Bus2=283.1.2.3 phases=3 Linecode=LC4 Length=0.30384 Units=m
New Line.LINE283 Bus1=281.1.2.3 Bus2=284.1.2.3 phases=3 Linecode=LC4 Length=0.21741 Units=m
New Line.LINE284 Bus1=282.1.2.3 Bus2=285.1.2.3 phases=3 Linecode=LC4 Length=1.7719 Units=m
New Line.LINE285 Bus1=283.1.2.3 Bus2=286.1.2.3 phases=3 Linecode=LC4 Length=0.65069 Units=m
New Line.LINE286 Bus1=284.1.2.3 Bus2=287.1.2.3 phases=3 Linecode=LC4 Length=0.22549 Units=m
New Line.LINE287 Bus1=285.1.2.3 Bus2=288.1.2.3 phases=3 Linecode=LC4 Length=1.9297 Units=m
New Line.LINE288 Bus1=286.1.2.3 Bus2=289.1.2.3 phases=3 Linecode=LC4 Length=1.167 Units=m
New Line.LINE289 Bus1=287.1.2.3 Bus2=290.1.2.3 phases=3 Linecode=LC4 Length=0.26253 Units=m
New Line.LINE290 Bus1=288.1.2.3 Bus2=291.1.2.3 phases=3 Linecode=LC4 Length=1.3338 Units=m
New Line.LINE291 Bus1=289.1.2.3 Bus2=292.1.2.3 phases=3 Linecode=LC4 Length=1.61 Units=m
New Line.LINE292 Bus1=290.1.2.3 Bus2=293.1.2.3 phases=3 Linecode=LC4 Length=0.26648 Units=m
New Line.LINE293 Bus1=291.1.2.3 Bus2=294.1.2.3 phases=3 Linecode=LC4 Length=3.803 Units=m
New Line.LINE294 Bus1=292.1.2.3 Bus2=295.1.2.3 phases=3 Linecode=LC4 Length=1.9501 Units=m
New Line.LINE295 Bus1=293.1.2.3 Bus2=296.1.2.3 phases=3 Linecode=LC4 Length=0.25144 Units=m
New Line.LINE296 Bus1=294.1.2.3 Bus2=297.1.2.3 phases=3 Linecode=LC4 Length=0.40557 Units=m
New Line.LINE297 Bus1=295.1.2.3 Bus2=298.1.2.3 phases=3 Linecode=LC4 Length=2.9501 Units=m
New Line.LINE298 Bus1=296.1.2.3 Bus2=299.1.2.3 phases=3 Linecode=LC4 Length=1.4526 Units=m
New Line.LINE299 Bus1=297.1.2.3 Bus2=300.1.2.3 phases=3 Linecode=LC4 Length=0.47402 Units=m
New Line.LINE300 Bus1=298.1.2.3 Bus2=301.1.2.3 phases=3 Linecode=LC4 Length=3.6345 Units=m
New Line.LINE301 Bus1=300.1.2.3 Bus2=302.1.2.3 phases=3 Linecode=LC4 Length=0.50356 Units=m
New Line.LINE302 Bus1=301.1.2.3 Bus2=303.1.2.3 phases=3 Linecode=LC4 Length=3.0606 Units=m
New Line.LINE303 Bus1=302.1.2.3 Bus2=304.1.2.3 phases=3 Linecode=LC4 Length=6.4867 Units=m
New Line.LINE304 Bus1=303.1.2.3 Bus2=305.1.2.3 phases=3 Linecode=LC4 Length=3.9548 Units=m
New Line.LINE305 Bus1=304.1.2.3 Bus2=306.1.2.3 phases=3 Linecode=LC4 Length=0.42859 Units=m
New Line.LINE306 Bus1=305.1.2.3 Bus2=307.1.2.3 phases=3 Linecode=LC4 Length=1.3541 Units=m
New Line.LINE307 Bus1=306.1.2.3 Bus2=308.1.2.3 phases=3 Linecode=LC4 Length=0.37547 Units=m
New Line.LINE308 Bus1=307.1.2.3 Bus2=309.1.2.3 phases=3 Linecode=LC1 Length=4.3839 Units=m
New Line.LINE309 Bus1=307.1.2.3 Bus2=310.1.2.3 phases=3 Linecode=LC4 Length=3.9792 Units=m
New Line.LINE310 Bus1=308.1.2.3 Bus2=311.1.2.3 phases=3 Linecode=LC4 Length=3.7061 Units=m
New Line.LINE311 Bus1=309.1.2.3 Bus2=312.1.2.3 phases=3 Linecode=LC1 Length=0.47647 Units=m
New Line.LINE312 Bus1=310.1.2.3 Bus2=313.1.2.3 phases=3 Linecode=LC4 Length=3.9535 Units=m
New Line.LINE313 Bus1=311.1.2.3 Bus2=314.1.2.3 phases=3 Linecode=LC1 Length=6.4012 Units=m
New Line.LINE314 Bus1=311.1.2.3 Bus2=315.1.2.3 phases=3 Linecode=LC4 Length=6.0425 Units=m
New Line.LINE315 Bus1=312.1.2.3 Bus2=316.1.2.3 phases=3 Linecode=LC1 Length=0.75177 Units=m
New Line.LINE316 Bus1=313.1.2.3 Bus2=317.1.2.3 phases=3 Linecode=LC4 Length=5.7502 Units=m
New Line.LINE317 Bus1=314.1.2.3 Bus2=318.1.2.3 phases=3 Linecode=LC1 Length=0.36793 Units=m
New Line.LINE318 Bus1=315.1.2.3 Bus2=319.1.2.3 phases=3 Linecode=LC4 Length=2.6123 Units=m
New Line.LINE319 Bus1=316.1.2.3 Bus2=320.1.2.3 phases=3 Linecode=LC1 Length=0.87469 Units=m
New Line.LINE320 Bus1=317.1.2.3 Bus2=321.1.2.3 phases=3 Linecode=LC4 Length=2.7591 Units=m
New Line.LINE321 Bus1=318.1.2.3 Bus2=322.1.2.3 phases=3 Linecode=LC1 Length=4.1567 Units=m
New Line.LINE322 Bus1=319.1.2.3 Bus2=323.1.2.3 phases=3 Linecode=LC1 Length=8.0337 Units=m
New Line.LINE323 Bus1=319.1.2.3 Bus2=324.1.2.3 phases=3 Linecode=LC4 Length=5.0985 Units=m
New Line.LINE324 Bus1=320.1.2.3 Bus2=325.1.2.3 phases=3 Linecode=LC1 Length=0.74323 Units=m
New Line.LINE325 Bus1=321.1.2.3 Bus2=326.1.2.3 phases=3 Linecode=LC4 Length=1.1609 Units=m
New Line.LINE326 Bus1=321.1.2.3 Bus2=327.1.2.3 phases=3 Linecode=LC4 Length=8.125 Units=m
New Line.LINE327 Bus1=322.1.2.3 Bus2=328.1.2.3 phases=3 Linecode=LC1 Length=0.35341 Units=m
New Line.LINE328 Bus1=323.1.2.3 Bus2=329.1.2.3 phases=3 Linecode=LC1 Length=10.1779 Units=m
New Line.LINE329 Bus1=324.1.2.3 Bus2=330.1.2.3 phases=3 Linecode=LC1 Length=7.1106 Units=m
New Line.LINE330 Bus1=324.1.2.3 Bus2=331.1.2.3 phases=3 Linecode=LC4 Length=3.8075 Units=m
New Line.LINE331 Bus1=325.1.2.3 Bus2=332.1.2.3 phases=3 Linecode=LC1 Length=0.60648 Units=m
New Line.LINE332 Bus1=326.1.2.3 Bus2=333.1.2.3 phases=3 Linecode=LC4 Length=1.3115 Units=m
New Line.LINE333 Bus1=326.1.2.3 Bus2=334.1.2.3 phases=3 Linecode=LC4 Length=0.5636 Units=m
New Line.LINE334 Bus1=327.1.2.3 Bus2=335.1.2.3 phases=3 Linecode=LC4 Length=3.9462 Units=m
New Line.LINE335 Bus1=328.1.2.3 Bus2=336.1.2.3 phases=3 Linecode=LC1 Length=1.3522 Units=m
New Line.LINE336 Bus1=330.1.2.3 Bus2=337.1.2.3 phases=3 Linecode=LC1 Length=0.18928 Units=m
New Line.LINE337 Bus1=332.1.2.3 Bus2=338.1.2.3 phases=3 Linecode=LC1 Length=1.2826 Units=m
New Line.LINE338 Bus1=333.1.2.3 Bus2=339.1.2.3 phases=3 Linecode=LC4 Length=3.3586 Units=m
New Line.LINE339 Bus1=334.1.2.3 Bus2=340.1.2.3 phases=3 Linecode=LC4 Length=1.3612 Units=m
New Line.LINE340 Bus1=335.1.2.3 Bus2=341.1.2.3 phases=3 Linecode=LC4 Length=6.0601 Units=m
New Line.LINE341 Bus1=336.1.2.3 Bus2=342.1.2.3 phases=3 Linecode=LC1 Length=5.1617 Units=m
New Line.LINE342 Bus1=337.1.2.3 Bus2=343.1.2.3 phases=3 Linecode=LC1 Length=0.41959 Units=m
New Line.LINE343 Bus1=338.1.2.3 Bus2=344.1.2.3 phases=3 Linecode=LC1 Length=0.35612 Units=m
New Line.LINE344 Bus1=339.1.2.3 Bus2=345.1.2.3 phases=3 Linecode=LC4 Length=4.8289 Units=m
New Line.LINE345 Bus1=340.1.2.3 Bus2=346.1.2.3 phases=3 Linecode=LC4 Length=5.8095 Units=m
New Line.LINE346 Bus1=341.1.2.3 Bus2=347.1.2.3 phases=3 Linecode=LC1 Length=5.1606 Units=m
New Line.LINE347 Bus1=341.1.2.3 Bus2=348.1.2.3 phases=3 Linecode=LC4 Length=2.4636 Units=m
New Line.LINE348 Bus1=343.1.2.3 Bus2=349.1.2.3 phases=3 Linecode=LC1 Length=6.6936 Units=m
New Line.LINE349 Bus1=344.1.2.3 Bus2=350.1.2.3 phases=3 Linecode=LC1 Length=0.35096 Units=m
New Line.LINE350 Bus1=345.1.2.3 Bus2=351.1.2.3 phases=3 Linecode=LC4 Length=0.18089 Units=m
New Line.LINE351 Bus1=346.1.2.3 Bus2=352.1.2.3 phases=3 Linecode=LC4 Length=1.6632 Units=m
New Line.LINE352 Bus1=347.1.2.3 Bus2=353.1.2.3 phases=3 Linecode=LC1 Length=0.84903 Units=m
New Line.LINE353 Bus1=348.1.2.3 Bus2=354.1.2.3 phases=3 Linecode=LC1 Length=2.702 Units=m
New Line.LINE354 Bus1=348.1.2.3 Bus2=355.1.2.3 phases=3 Linecode=LC4 Length=1.993 Units=m
New Line.LINE355 Bus1=349.1.2.3 Bus2=356.1.2.3 phases=3 Linecode=LC1 Length=0.36165 Units=m
New Line.LINE356 Bus1=350.1.2.3 Bus2=357.1.2.3 phases=3 Linecode=LC1 Length=0.69438 Units=m
New Line.LINE357 Bus1=351.1.2.3 Bus2=358.1.2.3 phases=3 Linecode=LC4 Length=0.18822 Units=m
New Line.LINE358 Bus1=352.1.2.3 Bus2=359.1.2.3 phases=3 Linecode=LC4 Length=0.26375 Units=m
New Line.LINE359 Bus1=353.1.2.3 Bus2=360.1.2.3 phases=3 Linecode=LC1 Length=1.5616 Units=m
New Line.LINE360 Bus1=354.1.2.3 Bus2=361.1.2.3 phases=3 Linecode=LC1 Length=1.7615 Units=m
New Line.LINE361 Bus1=355.1.2.3 Bus2=362.1.2.3 phases=3 Linecode=LC4 Length=4.1532 Units=m
New Line.LINE362 Bus1=356.1.2.3 Bus2=363.1.2.3 phases=3 Linecode=LC1 Length=0.27109 Units=m
New Line.LINE363 Bus1=357.1.2.3 Bus2=364.1.2.3 phases=3 Linecode=LC1 Length=5.3271 Units=m
New Line.LINE364 Bus1=358.1.2.3 Bus2=365.1.2.3 phases=3 Linecode=LC4 Length=0.27734 Units=m
New Line.LINE365 Bus1=359.1.2.3 Bus2=366.1.2.3 phases=3 Linecode=LC4 Length=0.2069 Units=m
New Line.LINE366 Bus1=360.1.2.3 Bus2=367.1.2.3 phases=3 Linecode=LC1 Length=1.3623 Units=m
New Line.LINE367 Bus1=361.1.2.3 Bus2=368.1.2.3 phases=3 Linecode=LC1 Length=0.57889 Units=m
New Line.LINE368 Bus1=362.1.2.3 Bus2=369.1.2.3 phases=3 Linecode=LC4 Length=6.4933 Units=m
New Line.LINE369 Bus1=363.1.2.3 Bus2=370.1.2.3 phases=3 Linecode=LC1 Length=1.2914 Units=m
New Line.LINE370 Bus1=365.1.2.3 Bus2=371.1.2.3 phases=3 Linecode=LC4 Length=0.22597 Units=m
New Line.LINE371 Bus1=366.1.2.3 Bus2=372.1.2.3 phases=3 Linecode=LC4 Length=0.17 Units=m
New Line.LINE372 Bus1=367.1.2.3 Bus2=373.1.2.3 phases=3 Linecode=LC1 Length=0.94683 Units=m
New Line.LINE373 Bus1=368.1.2.3 Bus2=374.1.2.3 phases=3 Linecode=LC1 Length=0.61569 Units=m
New Line.LINE374 Bus1=369.1.2.3 Bus2=375.1.2.3 phases=3 Linecode=LC4 Length=4.4574 Units=m
New Line.LINE375 Bus1=370.1.2.3 Bus2=376.1.2.3 phases=3 Linecode=LC1 Length=5.1796 Units=m
New Line.LINE376 Bus1=371.1.2.3 Bus2=377.1.2.3 phases=3 Linecode=LC4 Length=0.15632 Units=m
New Line.LINE377 Bus1=372.1.2.3 Bus2=378.1.2.3 phases=3 Linecode=LC4 Length=0.21436 Units=m
New Line.LINE378 Bus1=373.1.2.3 Bus2=379.1.2.3 phases=3 Linecode=LC1 Length=0.42791 Units=m
New Line.LINE379 Bus1=374.1.2.3 Bus2=380.1.2.3 phases=3 Linecode=LC1 Length=1.0955 Units=m
New Line.LINE380 Bus1=375.1.2.3 Bus2=381.1.2.3 phases=3 Linecode=LC1 Length=4.164 Units=m
New Line.LINE381 Bus1=375.1.2.3 Bus2=382.1.2.3 phases=3 Linecode=LC4 Length=3.6385 Units=m
New Line.LINE382 Bus1=377.1.2.3 Bus2=383.1.2.3 phases=3 Linecode=LC4 Length=0.68406 Units=m
New Line.LINE383 Bus1=378.1.2.3 Bus2=384.1.2.3 phases=3 Linecode=LC4 Length=0.26274 Units=m
New Line.LINE384 Bus1=379.1.2.3 Bus2=385.1.2.3 phases=3 Linecode=LC1 Length=0.35522 Units=m
New Line.LINE385 Bus1=380.1.2.3 Bus2=386.1.2.3 phases=3 Linecode=LC1 Length=0.94424 Units=m
New Line.LINE386 Bus1=381.1.2.3 Bus2=387.1.2.3 phases=3 Linecode=LC1 Length=1.2344 Units=m
New Line.LINE387 Bus1=382.1.2.3 Bus2=388.1.2.3 phases=3 Linecode=LC4 Length=2.4316 Units=m
New Line.LINE388 Bus1=383.1.2.3 Bus2=389.1.2.3 phases=3 Linecode=LC4 Length=0.52582 Units=m
New Line.LINE389 Bus1=384.1.2.3 Bus2=390.1.2.3 phases=3 Linecode=LC4 Length=0.19116 Units=m
New Line.LINE390 Bus1=385.1.2.3 Bus2=391.1.2.3 phases=3 Linecode=LC1 Length=0.72714 Units=m
New Line.LINE391 Bus1=386.1.2.3 Bus2=392.1.2.3 phases=3 Linecode=LC1 Length=0.76448 Units=m
New Line.LINE392 Bus1=387.1.2.3 Bus2=393.1.2.3 phases=3 Linecode=LC1 Length=0.89788 Units=m
New Line.LINE393 Bus1=389.1.2.3 Bus2=394.1.2.3 phases=3 Linecode=LC4 Length=6.0526 Units=m
New Line.LINE394 Bus1=390.1.2.3 Bus2=395.1.2.3 phases=3 Linecode=LC4 Length=0.311 Units=m
New Line.LINE395 Bus1=391.1.2.3 Bus2=396.1.2.3 phases=3 Linecode=LC1 Length=1.7534 Units=m
New Line.LINE396 Bus1=392.1.2.3 Bus2=397.1.2.3 phases=3 Linecode=LC1 Length=0.66736 Units=m
New Line.LINE397 Bus1=393.1.2.3 Bus2=398.1.2.3 phases=3 Linecode=LC1 Length=1.2932 Units=m
New Line.LINE398 Bus1=395.1.2.3 Bus2=399.1.2.3 phases=3 Linecode=LC4 Length=1.8394 Units=m
New Line.LINE399 Bus1=397.1.2.3 Bus2=400.1.2.3 phases=3 Linecode=LC1 Length=0.41764 Units=m
New Line.LINE400 Bus1=398.1.2.3 Bus2=401.1.2.3 phases=3 Linecode=LC1 Length=0.80284 Units=m
New Line.LINE401 Bus1=400.1.2.3 Bus2=402.1.2.3 phases=3 Linecode=LC1 Length=0.68373 Units=m
New Line.LINE402 Bus1=401.1.2.3 Bus2=403.1.2.3 phases=3 Linecode=LC1 Length=0.44205 Units=m
New Line.LINE403 Bus1=402.1.2.3 Bus2=404.1.2.3 phases=3 Linecode=LC1 Length=3.3112 Units=m
New Line.LINE404 Bus1=403.1.2.3 Bus2=405.1.2.3 phases=3 Linecode=LC1 Length=0.5077 Units=m
New Line.LINE405 Bus1=405.1.2.3 Bus2=406.1.2.3 phases=3 Linecode=LC1 Length=6.4469 Units=m
! ------------------------------------------------------------------------------------------